Version 4
SHEET 1 1940 680
WIRE 1424 -320 1312 -320
WIRE 1312 -272 1312 -320
WIRE 1424 -224 1424 -320
WIRE -16 -192 -304 -192
WIRE 64 -192 -16 -192
WIRE 144 -192 64 -192
WIRE 288 -192 144 -192
WIRE 416 -192 368 -192
WIRE 464 -192 416 -192
WIRE 480 -192 464 -192
WIRE 496 -192 480 -192
WIRE 640 -192 592 -192
WIRE 704 -192 640 -192
WIRE 800 -192 784 -192
WIRE 880 -192 800 -192
WIRE 1056 -192 880 -192
WIRE -304 -176 -304 -192
WIRE -16 -160 -16 -192
WIRE 64 -160 64 -192
WIRE 144 -160 144 -192
WIRE 416 -160 416 -192
WIRE 800 -160 800 -192
WIRE 880 -160 880 -192
WIRE 1056 -144 1056 -192
WIRE 1312 -144 1312 -192
WIRE 512 -80 512 -144
WIRE -304 -64 -304 -96
WIRE -16 -64 -16 -96
WIRE 64 -64 64 -96
WIRE 144 -64 144 -96
WIRE 416 -64 416 -96
WIRE 800 -64 800 -96
WIRE 880 -64 880 -96
WIRE 512 -32 512 -80
WIRE 1056 -32 1056 -64
WIRE 1312 -32 1312 -64
WIRE 192 -16 -224 -16
WIRE 416 -16 256 -16
WIRE -224 96 -224 -16
WIRE -112 96 -224 96
WIRE 96 96 -112 96
WIRE 416 96 416 -16
WIRE 416 96 352 96
WIRE -224 144 -224 96
WIRE 96 176 -32 176
WIRE 512 176 512 48
WIRE 512 176 352 176
WIRE -32 224 -32 176
WIRE 96 256 48 256
WIRE 416 256 416 160
WIRE 416 256 352 256
WIRE 464 256 464 -192
WIRE 464 256 416 256
WIRE -224 272 -224 224
WIRE -112 272 -112 160
WIRE 48 288 48 256
WIRE -32 336 -32 304
FLAG -224 272 0
FLAG -112 272 0
FLAG 48 288 0
FLAG 416 -64 0
FLAG 64 -64 0
FLAG -16 -64 0
FLAG 144 -64 0
FLAG -304 -64 0
FLAG 800 -64 0
FLAG 880 -64 0
FLAG 1056 -32 0
FLAG -32 336 0
FLAG 480 -192 CHGIN2
FLAG 640 -192 CHGIN
FLAG 1312 -32 0
FLAG 1424 -224 0
FLAG 512 -80 Gate
SYMBOL PowerProducts\\LTC4440 224 176 R0
SYMATTR InstName U1
SYMBOL ind 272 -176 R270
WINDOW 0 32 56 VTop 2
WINDOW 3 5 56 VBottom 2
SYMATTR InstName L1
SYMATTR Value 22µ
SYMATTR SpiceLine Ipk=36.6 Rser=0.002236 Rpar=2072.4 Cpar=0 flux=0.000022*36.6*tanh(x/36.6)
SYMBOL nmos 592 -144 M270
SYMATTR InstName M1
SYMATTR Value irfh7184pbf
SYMATTR Prefix X
SYMBOL cap 400 96 R0
SYMATTR InstName C1
SYMATTR Value .22µ
SYMBOL diode 192 0 R270
WINDOW 0 32 32 VTop 2
WINDOW 3 0 32 VBottom 2
SYMATTR InstName D1
SYMATTR Value BAS21
SYMATTR Prefix X
SYMBOL voltage -224 128 R0
WINDOW 123 0 0 Left 2
WINDOW 39 0 0 Left 2
SYMATTR InstName V1
SYMATTR Value 12
SYMBOL cap -128 96 R0
SYMATTR InstName C2
SYMATTR Value 1µ
SYMBOL diode 432 -96 R180
WINDOW 0 24 64 Left 2
WINDOW 3 24 0 Left 2
SYMATTR InstName D3
SYMATTR Value STTH60P03SW
SYMBOL cap 128 -160 R0
SYMATTR InstName C3
SYMATTR Value 1000µ
SYMATTR SpiceLine V=63 Irms=1.41 Rser=0.2324
SYMBOL cap 48 -160 R0
SYMATTR InstName C4
SYMATTR Value 1000µ
SYMATTR SpiceLine V=63 Irms=1.41 Rser=0.2324
SYMBOL cap -32 -160 R0
SYMATTR InstName C5
SYMATTR Value 1000µ
SYMATTR SpiceLine V=63 Irms=1.41 Rser=0.2324
SYMBOL res -320 -192 R0
SYMATTR InstName R1
SYMATTR Value 0.5
SYMATTR SpiceLine pwr=2000
SYMBOL cap 784 -160 R0
SYMATTR InstName C6
SYMATTR Value 1000µ
SYMATTR SpiceLine V=63 Irms=1.41 Rser=0.2324
SYMBOL cap 864 -160 R0
SYMATTR InstName C7
SYMATTR Value 1000µ
SYMATTR SpiceLine V=63 Irms=1.41 Rser=0.2324
SYMBOL voltage 1056 -160 R0
WINDOW 123 0 0 Left 2
WINDOW 39 0 0 Left 2
WINDOW 3 24 44 Left 2
SYMATTR Value 48
SYMATTR InstName V2
SYMBOL voltage -32 208 R0
WINDOW 123 0 0 Left 2
WINDOW 39 0 0 Left 2
SYMATTR InstName V3
SYMATTR Value PULSE(0 5 0 25n 25n 1u 2u)
SYMBOL res 496 -48 R0
SYMATTR InstName R2
SYMATTR Value 1m
SYMBOL bi2 1312 -144 R0
SYMATTR InstName B1
SYMATTR Value I=((V(CHGIN)-V(CHGIN2))*I(R4))+(V(Gate)*I(R2))
SYMBOL res 800 -208 R90
WINDOW 0 0 56 VBottom 2
WINDOW 3 32 56 VTop 2
SYMATTR InstName R4
SYMATTR Value 0.001
SYMBOL res 1296 -288 R0
SYMATTR InstName R3
SYMATTR Value irfh7184pbft
SYMATTR Prefix X
TEXT 600 64 Left 2 !.inc C:\\Users\\IEUser\\Documents\\Power-Pack\\SPICE\\Models\\irfh7184pbf.spi
TEXT 600 96 Left 2 !.inc C:\\Users\\IEUser\\Documents\\Power-Pack\\SPICE\\Models\\BAS21.prm
TEXT 600 128 Left 2 ;.lib C:\\Users\\IEUser\\Documents\\Power-Pack\\SPICE\\Models\\ultrafast_200v_300v_400v_v2.LIB
TEXT 600 192 Left 2 !.tran 5m
