Version 4
SHEET 1 1272 680
WIRE 736 -112 544 -112
WIRE 864 -112 816 -112
WIRE 928 -112 864 -112
WIRE 1024 -112 928 -112
WIRE 656 -80 512 -80
WIRE -96 -32 -224 -32
WIRE 16 -32 -96 -32
WIRE 112 -32 16 -32
WIRE 224 -32 176 -32
WIRE 272 -32 224 -32
WIRE 448 -32 336 -32
WIRE -96 -16 -96 -32
WIRE 656 -16 656 -80
WIRE 656 -16 640 -16
WIRE 864 -16 864 -48
WIRE 928 -16 928 -48
WIRE 928 -16 864 -16
WIRE 1024 -16 1024 -32
WIRE 1024 -16 928 -16
WIRE 544 0 544 -112
WIRE 576 0 544 0
WIRE 928 0 928 -16
WIRE -224 16 -224 -32
WIRE 656 16 640 16
WIRE 224 32 224 -32
WIRE -96 80 -96 48
WIRE 16 96 16 -32
WIRE 96 96 16 96
WIRE 512 96 512 -80
WIRE 512 96 352 96
WIRE -224 128 -224 96
WIRE 656 144 656 16
WIRE 656 144 544 144
WIRE 768 144 656 144
WIRE 912 144 848 144
WIRE 992 144 912 144
WIRE 1072 144 992 144
WIRE 1216 144 1072 144
WIRE 1216 160 1216 144
WIRE 96 176 -224 176
WIRE 448 176 448 -32
WIRE 448 176 352 176
WIRE 544 176 544 144
WIRE 544 176 448 176
WIRE 912 176 912 144
WIRE 992 176 992 144
WIRE 1072 176 1072 144
WIRE 656 192 656 144
WIRE 656 192 544 192
WIRE -224 224 -224 176
WIRE 688 240 640 240
WIRE 96 256 -32 256
WIRE 448 256 352 256
WIRE 544 256 544 192
WIRE 576 256 544 256
WIRE 704 272 640 272
WIRE 912 272 912 240
WIRE 992 272 992 240
WIRE 992 272 912 272
WIRE 1072 272 1072 240
WIRE 1072 272 992 272
WIRE 1216 288 1216 240
WIRE 992 304 992 272
WIRE 448 336 448 256
WIRE 688 336 688 240
WIRE 688 336 448 336
WIRE -224 352 -224 304
WIRE -32 352 -32 256
WIRE 224 368 224 320
WIRE 704 384 704 272
WIRE -32 480 -32 432
FLAG 704 384 0
FLAG 928 0 0
FLAG 992 304 0
FLAG 1216 288 0
FLAG -224 128 0
FLAG -96 80 0
FLAG -224 352 0
FLAG -32 480 0
FLAG 224 368 0
SYMBOL PowerProducts\\LTC4444 224 176 R0
SYMATTR InstName U1
SYMBOL schottky 112 -16 R270
WINDOW 0 32 32 VTop 2
WINDOW 3 0 32 VBottom 2
SYMATTR InstName D1
SYMBOL cap 336 -48 R90
WINDOW 0 0 32 VBottom 2
WINDOW 3 32 32 VTop 2
SYMATTR InstName C1
SYMATTR Value .22µ
SYMATTR SpiceLine V=25
SYMBOL ind 752 160 R270
WINDOW 0 32 56 VTop 2
WINDOW 3 5 56 VBottom 2
SYMATTR InstName L1
SYMATTR Value 22µ
SYMATTR SpiceLine Ipk=36.6 Rser=0.002236 Rpar=2072.4 Cpar=0 flux=0.000022*36.6*tanh(x/36.6)
SYMBOL AutoGenerated\\irfh7191pbf 608 0 R0
SYMATTR InstName U2
SYMBOL AutoGenerated\\irfh7191pbf 608 256 R0
SYMATTR InstName U3
SYMBOL voltage 1024 -128 R0
WINDOW 123 0 0 Left 2
WINDOW 39 0 0 Left 2
SYMATTR InstName V1
SYMATTR Value 48
SYMBOL cap 912 -112 R0
SYMATTR InstName C2
SYMATTR Value 100µF
SYMBOL cap 848 -112 R0
SYMATTR InstName C3
SYMATTR Value 100µF
SYMBOL res 832 -128 R90
WINDOW 0 0 56 VBottom 2
WINDOW 3 32 56 VTop 2
SYMATTR InstName R1
SYMATTR Value 0.001
SYMBOL cap 896 176 R0
SYMATTR InstName C4
SYMATTR Value 1000µ
SYMATTR SpiceLine V=63 Irms=1.41 Rser=.2324
SYMBOL cap 976 176 R0
SYMATTR InstName C5
SYMATTR Value 1000µ
SYMATTR SpiceLine V=63 Irms=1.41 Rser=0.2324
SYMBOL cap 1056 176 R0
SYMATTR InstName C6
SYMATTR Value 1000µ
SYMATTR SpiceLine V=63 Irms=1.41 Rser=.2324
SYMBOL res 1200 144 R0
SYMATTR InstName R2
SYMATTR Value 1
SYMBOL voltage -224 0 R0
WINDOW 123 0 0 Left 2
WINDOW 39 0 0 Left 2
SYMATTR InstName V2
SYMATTR Value 12
SYMBOL cap -112 -16 R0
SYMATTR InstName C7
SYMATTR Value 1µ
SYMBOL voltage -32 336 R0
WINDOW 123 0 0 Left 2
WINDOW 39 0 0 Left 2
SYMATTR InstName V3
SYMATTR Value PULSE(0 5 1u 25n 25n 1u 2u)
SYMBOL voltage -224 208 R0
WINDOW 123 0 0 Left 2
WINDOW 39 0 0 Left 2
SYMATTR InstName V4
SYMATTR Value PULSE(0 5 0 25n 25n 1u 2u)
TEXT -258 504 Left 2 !.tran 100m
