Version 4
SHEET 1 1272 680
WIRE 784 -304 672 -304
WIRE 1088 -304 848 -304
WIRE 240 -288 128 -288
WIRE 432 -288 304 -288
WIRE 672 -288 672 -304
WIRE 128 -256 128 -288
WIRE 432 -240 432 -288
WIRE 1088 -192 1088 -224
WIRE 672 -176 672 -208
WIRE 128 -144 128 -176
WIRE 432 -128 432 -160
WIRE 624 -112 544 -112
WIRE 736 -112 624 -112
WIRE 864 -112 816 -112
WIRE 928 -112 864 -112
WIRE 1024 -112 928 -112
WIRE 656 -80 512 -80
WIRE 512 -48 512 -80
WIRE -96 -32 -224 -32
WIRE 16 -32 -96 -32
WIRE 112 -32 16 -32
WIRE 224 -32 176 -32
WIRE 272 -32 224 -32
WIRE 448 -32 336 -32
WIRE -96 -16 -96 -32
WIRE 512 -16 512 -48
WIRE 656 -16 656 -80
WIRE 656 -16 640 -16
WIRE 864 -16 864 -48
WIRE 928 -16 928 -48
WIRE 928 -16 864 -16
WIRE 1024 -16 1024 -32
WIRE 1024 -16 928 -16
WIRE 544 0 544 -112
WIRE 576 0 544 0
WIRE 928 0 928 -16
WIRE -224 16 -224 -32
WIRE 656 16 640 16
WIRE 224 32 224 -32
WIRE -96 80 -96 48
WIRE 16 96 16 -32
WIRE 96 96 16 96
WIRE 512 96 512 64
WIRE 512 96 352 96
WIRE 656 112 656 16
WIRE -224 128 -224 96
WIRE 656 144 656 112
WIRE 656 144 544 144
WIRE 768 144 656 144
WIRE 912 144 848 144
WIRE 992 144 912 144
WIRE 1072 144 992 144
WIRE 1216 144 1072 144
WIRE 1216 160 1216 144
WIRE 96 176 -224 176
WIRE 448 176 448 -32
WIRE 448 176 352 176
WIRE 544 176 544 144
WIRE 544 176 448 176
WIRE 912 176 912 144
WIRE 992 176 992 144
WIRE 1072 176 1072 144
WIRE 560 192 544 192
WIRE 656 192 656 144
WIRE 656 192 640 192
WIRE -224 224 -224 176
WIRE 544 240 544 192
WIRE 688 240 640 240
WIRE 96 256 -32 256
WIRE 448 256 352 256
WIRE 544 256 544 240
WIRE 576 256 544 256
WIRE 704 272 640 272
WIRE 912 272 912 240
WIRE 992 272 992 240
WIRE 992 272 912 272
WIRE 1072 272 1072 240
WIRE 1072 272 992 272
WIRE 1216 288 1216 240
WIRE 992 304 992 272
WIRE 448 336 448 256
WIRE 544 336 448 336
WIRE 688 336 688 240
WIRE 688 336 624 336
WIRE -224 352 -224 304
WIRE -32 352 -32 256
WIRE 224 368 224 320
WIRE 704 384 704 272
WIRE -32 480 -32 432
FLAG 704 384 0
FLAG 928 0 0
FLAG 992 304 0
FLAG 1216 288 0
FLAG -224 128 0
FLAG -96 80 0
FLAG -224 352 0
FLAG -32 480 0
FLAG 224 368 0
FLAG 128 -144 0
FLAG 432 -128 0
FLAG 656 112 TS
FLAG 624 -112 TD
FLAG 512 -48 TG
FLAG 544 240 BD
FLAG 688 240 BG
FLAG 672 -176 0
FLAG 1088 -192 0
SYMBOL PowerProducts\\LTC4444 224 176 R0
SYMATTR InstName U1
SYMBOL schottky 112 -16 R270
WINDOW 0 32 32 VTop 2
WINDOW 3 0 32 VBottom 2
SYMATTR InstName D1
SYMBOL cap 336 -48 R90
WINDOW 0 0 32 VBottom 2
WINDOW 3 32 32 VTop 2
SYMATTR InstName C1
SYMATTR Value .22µ
SYMATTR SpiceLine V=25
SYMBOL ind 752 160 R270
WINDOW 0 32 56 VTop 2
WINDOW 3 5 56 VBottom 2
SYMATTR InstName L1
SYMATTR Value 22µ
SYMATTR SpiceLine Ipk=36.6 Rser=0.002236 Rpar=2072.4 Cpar=0 flux=0.000022*36.6*tanh(x/36.6)
SYMBOL AutoGenerated\\irfh7191pbf 608 0 R0
SYMATTR InstName U2
SYMBOL AutoGenerated\\irfh7191pbf 608 256 R0
SYMATTR InstName U3
SYMBOL voltage 1024 -128 R0
WINDOW 123 0 0 Left 2
WINDOW 39 24 44 Left 2
SYMATTR InstName V1
SYMATTR Value SINE(48 0.1 50k)
SYMBOL cap 912 -112 R0
SYMATTR InstName C2
SYMATTR Value 100µF
SYMATTR SpiceLine V=250 Irms=2.1 Rser=0.02
SYMBOL cap 848 -112 R0
SYMATTR InstName C3
SYMATTR Value 100µF
SYMATTR SpiceLine V=250 Irms=2.1 Rser=0.020
SYMBOL res 832 -128 R90
WINDOW 0 0 56 VBottom 2
WINDOW 3 32 56 VTop 2
SYMATTR InstName R1
SYMATTR Value 0.001
SYMBOL cap 896 176 R0
SYMATTR InstName C4
SYMATTR Value 100µ
SYMATTR SpiceLine V=250 Irms=2.1 Rser=0.020
SYMBOL cap 976 176 R0
SYMATTR InstName C5
SYMATTR Value 100µ
SYMATTR SpiceLine V=250 Irms=2.1 Rser=0.02
SYMBOL cap 1056 176 R0
SYMATTR InstName C6
SYMATTR Value 27µ
SYMATTR SpiceLine V=63 Irms=2.1 Rser=0.033
SYMBOL res 1200 144 R0
SYMATTR InstName R2
SYMATTR Value 1
SYMBOL voltage -224 0 R0
WINDOW 123 0 0 Left 2
WINDOW 39 24 124 Left 2
SYMATTR SpiceLine Rser=12
SYMATTR InstName V2
SYMATTR Value 12
SYMBOL cap -112 -16 R0
SYMATTR InstName C7
SYMATTR Value 1µ
SYMBOL voltage -32 336 R0
WINDOW 123 0 0 Left 2
WINDOW 39 0 0 Left 2
SYMATTR InstName V3
SYMATTR Value PULSE(0 5 1.1u 25n 25n 1.0u 2u)
SYMBOL voltage -224 208 R0
WINDOW 123 0 0 Left 2
WINDOW 39 0 0 Left 2
SYMATTR InstName V4
SYMATTR Value PULSE(0 5 0 25n 25n 1u 2u)
SYMBOL AutoGenerated\\irfh7191pbft 272 -288 R0
SYMATTR InstName U4
SYMBOL bi2 128 -256 R0
SYMATTR InstName B1
SYMATTR Value I=((V(TD)-V(TS))*I(R1))+(V(TG)*I(R3))
SYMBOL voltage 432 -256 R0
WINDOW 123 0 0 Left 2
WINDOW 39 0 0 Left 2
SYMATTR InstName V5
SYMATTR Value 25
SYMBOL res 528 80 R180
WINDOW 0 36 76 Left 2
WINDOW 3 36 40 Left 2
SYMATTR InstName R3
SYMATTR Value 0.001
SYMBOL res 544 208 R270
WINDOW 0 32 56 VTop 2
WINDOW 3 0 56 VBottom 2
SYMATTR InstName R4
SYMATTR Value 0.001
SYMBOL res 640 320 R90
WINDOW 0 0 56 VBottom 2
WINDOW 3 32 56 VTop 2
SYMATTR InstName R5
SYMATTR Value 0.001
SYMBOL AutoGenerated\\irfh7191pbft 816 -304 R0
SYMATTR InstName U5
SYMBOL bi2 672 -288 R0
SYMATTR InstName B2
SYMATTR Value I=(-1*V(BD)*I(R4))+(V(BG)*I(R5))
SYMBOL voltage 1088 -320 R0
WINDOW 123 0 0 Left 2
WINDOW 39 0 0 Left 2
SYMATTR InstName V6
SYMATTR Value 25
TEXT -256 504 Left 2 !.tran 100m
